**$ENCRYPTED_LIB
**$INTERFACE
*$
*TPS2066C-2
*****************************************************************************
* (C) Copyright 2013 Texas Instruments Incorporated. All rights reserved.                                            
*****************************************************************************
** This model is designed as an aid for customers of Texas Instruments.
** TI and its licensors and suppliers make no warranties, either expressed
** or implied, with respect to this model, including the warranties of 
** merchantability or fitness for a particular purpose.  The model is
** provided solely on an "as is" basis.  The entire risk as to its quality
** and performance is with the customer
*****************************************************************************
*
* This model is subject to change without notice. Texas Instruments
* Incorporated is not responsible for updating this model.
*
*****************************************************************************
*
** Released by: WEBENCH Design Center, Texas Instruments Inc.
* Part: TPS2066C-2
* Date: 04JAN2013
* Model Type: TRANSIENT
* Simulator: PSPICE
* Simulator Version: 16.2.0.p001
* EVM Order Number: 
* EVM Users Guide: 
* Datasheet: SLVSAX6F OCTOBER 2011REVISED NOVEMBER 2012
*
* Model Version: Final 1.00
*
*****************************************************************************
*
* Updates:
*
* Final 1.00
* Release to Web.
*
*****************************************************************************
.SUBCKT TPS2066C-2_TRANS EN1 EN2 FLT_B1 FLT_B2 GND IN OUT1 OUT2 PAD PARAMS: EN_P=1
$CDNENCSTART
eee8c5c7a2bc4b01f045f303678664e7916da0bae22e8cb0bba041dd67c69ce448ea70148a9ac1670c8926c1ac5057c8ccfcd77bf87ca9dc0daf4c7b071f3524
73bcd32e034b671d908295b3613f26e6eb5ac73f29cd4671983049bd0801b996c9322890ded6647be4806f8120aaa42895525ffbff17dca1cc2a5aca7c56375d
18fbf3e306c348f88675a01b2db95be77d048848de185a921c544c4d299e6b123ce6cd54a8e709daaeab973424ca9a17ae356be22a8d1888eef28c4c54e8d10e
73bcd32e034b671d48fcd3a8c0cfea35eb5ac73f29cd4671983049bd0801b996c9322890ded6647be4806f8120aaa42852c8429922c7400f3eea38b62a70a785
c9c88b56ecf3af904b0c2187a2813d9fa40aa245948346d0082c10ecaed06bf3e35b810d8731224a11816a245f56ba7166745ff7f3a62c030d113fb97904eb76
e66986ac8efd7292706b807646b80371670f224ed52ebb4ff76fc0fa4c029a3c7af8c38a77942a487662f9e929a451ee8318958aa75d4556dd0a70f33e2447ea
4e2689494256295447158635b18b66597d048848de185a921c544c4d299e6b123ce6cd54a8e709daaeab973424ca9a17ae356be22a8d1888eef28c4c54e8d10e
4b6085f2012636675a0aa31c52cddba976617f42cd5d956b0faa79a649213700a920ac01c56db9fd3864b3a24f0c1a4ad20fe61542bbf436d1e27d528923d7cf
f68dde72917c440e706b807646b80371670f224ed52ebb4ff76fc0fa4c029a3c7f96957e39cb019b6baa4c351fc5e3ad60a188d940e604c1ecf22f43cd602b91
44286f328a01b55967d2eff95da562744e8a35b2e28adfb5477207172985fee0b583f4aa3f72f4afcf7eb983195286b83bc86ed437f647342fcd1db7a4efa241
4b6085f2012636675a0aa31c52cddba976617f42cd5d956b0faa79a649213700a920ac01c56db9fd3864b3a24f0c1a4ad20fe61542bbf436d1e27d528923d7cf
55f704278dd54997bc27f931268b40615ac383520793f39f5d5cdaef2c4cb5bd3a083db20142c6da986c5a7635ccca348dcea2cdd2d3d5ccd573267e41263c5c
dd06c2baef735cae2b1410deca799d73a40aa245948346d0082c10ecaed06bf3e35b810d8731224a11816a245f56ba7166745ff7f3a62c030d113fb97904eb76
4b6085f2012636675a0aa31c52cddba976617f42cd5d956b0faa79a649213700a920ac01c56db9fd3864b3a24f0c1a4ad20fe61542bbf436d1e27d528923d7cf
1781d70635e56fc2706b807646b80371d06fa23311780996533818a6c81c70a85bfd202650a434ed6bf55428c35ad9f85a4c5b92c992d9fc4fca1b0d678694c2
cd9f5b62b37ac54c706b807646b80371038ff71c8e01915f975a7d268422e273cdd6c3d82d863cfa0faa79a649213700a920ac01c56db9fd7279e9bc1bd47f05
70ef733512e1ad84706b807646b80371d22c2c7bf5a729695de530c669a32818b0c9c6f46a17fca57d048848de185a921c544c4d299e6b123e042f521bb1c783
8f6bad1ea32cf61a908295b3613f26e6c4d597a45bc64849995cd94a9739626ddad4bb70f534f24c4e8a35b2e28adfb5477207172985fee00fdb7d013c1bd542
a2faec34d68cdd2ae42d36884b8caefeeb577d3817a5fda31d1eb63fdcafb1a29cd6e365073343dafcfa33804743e0557c937d163d9db1c3cd64d7206b7107eb
af399d32d282acb64e8a35b2e28adfb5477207172985fee0b583f4aa3f72f4afcf7eb983195286b83bc86ed437f64734e2549a47e2987dd02f12f42cc4145784
cb5547142aec5511706b807646b80371d713bdb964ea4f23fdfe3e2d1cc93255c58f303f7234a5891ed0f011e4546e8cbfaba9e20e637806bf1fa6af27fc5a66
11f3fb914b8604e7706b807646b803719cc57d5911c8695e9f8b0c069064c8f12219705b561566b98dcea2cdd2d3d5cc9783ae8e4821c68fb9549840541e7e65
2b1410deca799d73a40aa245948346d0082c10ecaed06bf3e35b810d8731224a11816a245f56ba7166745ff7f3a62c03bc9c3a04ad6851fb40c9dbafbda25b3b
4b6085f2012636675a0aa31c52cddba976617f42cd5d956b0faa79a649213700a920ac01c56db9fd3864b3a24f0c1a4ad20fe61542bbf436d1e27d528923d7cf
1d19ff4854a3ff75cd9f9b0fe66d8ad121784f0ad4d8997b4705292f7cc3a56075342038507add6bbc5810c1b03d362d55cc7113ef7d91bd75f2ebdd4149d8b6
2406debec30f3f441b3d56e5dcd407177d048848de185a921c544c4d299e6b123ce6cd54a8e709daaeab973424ca9a17ae356be22a8d1888eef28c4c54e8d10e
b9364514af379b129d8377ee7737fb44391695ceff3b1e28a8203bfafb0360cf357141e83f6f5fd5454552a724d48e0533afbd6256500a03ec5f13850fa722f1
1183f13b1d31bb8d706b807646b8037117303b2dba45b4998aed68c830f56e56391695ceff3b1e28a8203bfafb0360cf357141e83f6f5fd5e568bf06bf5a7193
6a1ae880865b1b46706b807646b80371d06fa23311780996e033eec95bedd98981b28afd5c0dc6dfa40aa245948346d0082c10ecaed06bf350c3d8bb727f63f0
1d19ff4854a3ff75a665d0fac02ce03e21784f0ad4d8997b253b75ae7c850c6a2a9b56064b9874c77422178dd965d0d4e637fdbb8c7ad987f39b45ec775ff4a6
b09606f3927a2340e544db82a89be0c4a40aa245948346d0082c10ecaed06bf3e35b810d8731224a11816a245f56ba7166745ff7f3a62c030d113fb97904eb76
b9364514af379b12c55c8187f39b70bed7f1ff6dfa70b4ce848d7563dfff7e5f0f291a0c6f7f7ab753f42fece2d95c6eb3e38518802e7fe5b681fc1ddfef9a06
acf62dc7fde5a459706b807646b8037119664709f847021269dbbf2bb32745e5949e0297405d1edc7d048848de185a921c544c4d299e6b123e042f521bb1c783
e4887c230c94827a706b807646b80371594ef2dd8c5a6cdedf61db03663c66c25c92f43aab306fefa3228d1dae875195e556b1c15460ae6f450139be464a895d
b032015482838020d2208d979160a902391695ceff3b1e28a8203bfafb0360cf357141e83f6f5fd5454552a724d48e0533afbd6256500a03ec5f13850fa722f1
8767f397bff4c3a731bbfa71d5efb6fe825b843a3aa9ddcd7d048848de185a921c544c4d299e6b123ce6cd54a8e709daaeab973424ca9a178c3cc77198966d0f
1d19ff4854a3ff75cc0121b5e20e20764d8dedc8a85f068f8c4c0373f6cde8e2a81c495fd6a99d2f93f0978bcaae26c25e907deffd12c5fff9224a01a31d483a
b31205aa407e75cde847dda77d5f94430faa79a649213700a920ac01c56db9fd3864b3a24f0c1a4ad20fe61542bbf4362f9a1b2dabc616804f83835b8ea0ca64
4b6085f2012636675a0aa31c52cddba976617f42cd5d956b0faa79a649213700a920ac01c56db9fd3864b3a24f0c1a4ad20fe61542bbf436d1e27d528923d7cf
aa96bca0d79018c4706b807646b803710dbbc4cd34dbe19da893d967a1134e74bf1ee911780421ddd7f1ff6dfa70b4ce848d7563dfff7e5fc2be9e29a2539196
2fbc62dc97daa403706b807646b803718a72831a8d99f6d536088623048c1e0a4f8181b227c1b6b57d048848de185a921c544c4d299e6b123e042f521bb1c783
8e9e24e73f982a9d706b807646b803717a5d67b952146eeaee8edcb7e7dfb58ba40aa245948346d0082c10ecaed06bf3e35b810d8731224a1ec4fafcdf836200
1d19ff4854a3ff75bc27f931268b40614fe4197e4375070d55cf208bfb11813aa99b45a6606da7a46cee97727155d1e12a3a4c6fd0290a8c6e60eb3201e0fb5e
ec1a1895dde1d6acaee7c3355aa4e4a936806a8e381bf9a00faa79a649213700a920ac01c56db9fd3864b3a24f0c1a4ad20fe61542bbf436d1e27d528923d7cf
dadfe952f625a2fdbf230db17611f82f112096b03532d47891cde6d46ed0e8ca8ce251af3875cdd71dbadcc869c223fde637fdbb8c7ad987f39b45ec775ff4a6
2333c0a2b8851bfef3950200aa8721566bf55428c35ad9f85a4c5b92c992d9fc97eb804d5b93de4bfa82b8289c739e36820b509cfe8be04207c93016116a6b20
c2a8eac764f58a52c4ad4e35d9645a941ed0f011e4546e8cbfaba9e20e63780623444358c598a958b1c7885f730bd5a11fb8ee826d6e4f836cacbdddad249e57
80dc466abd8db973706b807646b80371de143190773f5e7add5a8c169b401c4d6bf55428c35ad9f85a4c5b92c992d9fc97eb804d5b93de4bc6f9ddaa14c87867
7f05fef9dccdfcb3706b807646b8037127b6a9d6a0952f4f774cb8be900c43131de333fbd2e0f35dd7f1ff6dfa70b4ce848d7563dfff7e5fc2be9e29a2539196
2130099189abd5f1706b807646b80371c8350958a39c5f8b9dd9e231f7c12eb7a40aa245948346d0082c10ecaed06bf3e35b810d8731224a1ec4fafcdf836200
dadfe952f625a2fdb585b96681e0ca9b4d8dedc8a85f068f1ab3f93ad124c2984af60e3b693b372cc1af6985fb00d168bbc22f6f0f8a0075dd0a70f33e2447ea
bc93dc5acf240a3931c8597f0d0568526bf55428c35ad9f85a4c5b92c992d9fc97eb804d5b93de4bfa82b8289c739e36820b509cfe8be04207c93016116a6b20
c2a8eac764f58a52c55c8187f39b70bed7f1ff6dfa70b4ce848d7563dfff7e5f0f291a0c6f7f7ab753f42fece2d95c6eb3e38518802e7fe5b681fc1ddfef9a06
c0a41cdff58ff34a706b807646b803712542463cef30e536b2dc0dffedfa0237007c0de5d99931166bf55428c35ad9f85a4c5b92c992d9fc4fca1b0d678694c2
a3bec63fb962b136e91060ee5f9b7ca372f196e24365d1dc9f2fc393ab2768c07f9bcddc45118e316c11caa64c17e237f8571751a73b05dd81a54239993b2eef
c4eaece8f13aa69d706b807646b80371e2cc1aca0a2ab385c73b382e9eb3fd07e1a0eabfd83358d9cdd6c3d82d863cfa0faa79a649213700320103ab65281039
93425406ee07bb44706b807646b80371e2cc1aca0a2ab38555ebf33c24416fc579442c61b2ea17296bf55428c35ad9f85a4c5b92c992d9fc4fca1b0d678694c2
439fe32f88b0f315bc27f931268b4061cb3a73884c4d3cc93e8c81d05798c92b901c849eda60ddea5fe0bcc2773fadda986c5a7635ccca3450794576b4f63d0d
5e907deffd12c5ffdd06c2baef735cae36806a8e381bf9a00faa79a649213700a920ac01c56db9fd3864b3a24f0c1a4ad20fe61542bbf436d1e27d528923d7cf
8767f397bff4c3a731bbfa71d5efb6fe102372497787b35ca40aa245948346d0082c10ecaed06bf3e35b810d8731224a11816a245f56ba71dc1c9c6b11a54bfa
926f439d00b10bcc706b807646b8037112b1d1db3297d10878b592436aa4835b79c3b84a51ea5f388dcea2cdd2d3d5cc9783ae8e4821c68fb9549840541e7e65
2b1410deca799d73a40aa245948346d0082c10ecaed06bf3e35b810d8731224a11816a245f56ba7166745ff7f3a62c03bc9c3a04ad6851fb40c9dbafbda25b3b
4b6085f2012636676f3085441f0c7a2a391695ceff3b1e28a8203bfafb0360cf357141e83f6f5fd5454552a724d48e0533afbd6256500a03ec5f13850fa722f1
3ea28fbf0d9e3a8a706b807646b8037178b592436aa4835bc76df6d2a063fe586e8abf1353c4af0d726d9a7f6b37359c8318958aa75d4556dd0a70f33e2447ea
4e2689494256295447158635b18b66597d048848de185a921c544c4d299e6b123ce6cd54a8e709daaeab973424ca9a17ae356be22a8d1888eef28c4c54e8d10e
4b6085f2012636675a0aa31c52cddba976617f42cd5d956b0faa79a649213700a920ac01c56db9fd3864b3a24f0c1a4ad20fe61542bbf436d1e27d528923d7cf
f5ea972b58887fb5706b807646b80371f97b997b5674a6ff1bc147f7d963e3fd35f04a68b79b9954cb43076903417b7660a188d940e604c1ecf22f43cd602b91
44286f328a01b55967d2eff95da562744e8a35b2e28adfb5477207172985fee0b583f4aa3f72f4afcf7eb983195286b83bc86ed437f647342fcd1db7a4efa241
4b6085f2012636675a0aa31c52cddba976617f42cd5d956b0faa79a649213700a920ac01c56db9fd3864b3a24f0c1a4ad20fe61542bbf436d1e27d528923d7cf
f6537d8297ec391c706b807646b80371cfc5f245eba94c9028265f7f83427eab99bbf488c037c99c4e8a35b2e28adfb5477207172985fee00fdb7d013c1bd542
d9e3222030dfd73a706b807646b803719cc57d5911c8695e910dbd06ee77f3089933d4ff24e47a539cbb6e8bb9298f671cc6f6773fc1dbced2c0ea702584563a
e776e9b255bda08cbfd81d659a09e4b36bf55428c35ad9f85a4c5b92c992d9fc97eb804d5b93de4bfa82b8289c739e36820b509cfe8be04207c93016116a6b20
8767f397bff4c3a731bbfa71d5efb6fe102372497787b35ca40aa245948346d0082c10ecaed06bf3e35b810d8731224a11816a245f56ba71dc1c9c6b11a54bfa
4ef22db99e1fe0b6706b807646b80371e2cc1aca0a2ab385c19c3ff44ddc2773e950b78090ac4cbfcdd6c3d82d863cfa0faa79a649213700320103ab65281039
131653ab76ab8cd5706b807646b80371e2cc1aca0a2ab385c133338b473154cbe950b78090ac4cbfcdd6c3d82d863cfa0faa79a649213700320103ab65281039
e59633e0a3665563706b807646b80371b98f0ebcb1f385f98e95488753e6c73156104f976ae2aac26254d6470acd59d2fb39caa823c4ddd7c27a0fe47ba19b0a
4651b4c215cbe2b1c23cdff2c91ac4507d048848de185a921c544c4d299e6b123ce6cd54a8e709daaeab973424ca9a17ae356be22a8d1888eef28c4c54e8d10e
8767f397bff4c3a731bbfa71d5efb6fe102372497787b35ca40aa245948346d0082c10ecaed06bf3e35b810d8731224a11816a245f56ba71dc1c9c6b11a54bfa
3e98407318bd7ce6706b807646b80371e2cc1aca0a2ab3855ee2abbae5a05216e47cc8d2d1d9cc7defe4a43592d70957589af0812576e61b450139be464a895d
b032015482838020d2208d979160a902391695ceff3b1e28a8203bfafb0360cf357141e83f6f5fd5454552a724d48e0533afbd6256500a03ec5f13850fa722f1
8767f397bff4c3a731bbfa71d5efb6fe102372497787b35ca40aa245948346d0082c10ecaed06bf3e35b810d8731224a11816a245f56ba71dc1c9c6b11a54bfa
01bbba4488482a77cd9f9b0fe66d8ad1cb3a73884c4d3cc95c9321bdc8ca15d5ce5ec34e6f8ad1ca226ae89384f8d7ebe40a25d3586bc3758ddef45e1d872303
140dd90bd73d05f9706b807646b803719d01905cad1d820a4c9fa3a5a42b360ee2cc1aca0a2ab385fd1f67200a20032a075d017d20b9edeb8e75c1b5a4d8f232
d2bbd7e847d638e1f9160e96a49a6a05d7f1ff6dfa70b4ce848d7563dfff7e5f0f291a0c6f7f7ab753f42fece2d95c6eb3e38518802e7fe5b681fc1ddfef9a06
cdaa385411811e27bfd81d659a09e4b32637e9cac2aa5cea2cecad1ebf804c4bf467148f06ca8e43d7f1ff6dfa70b4ce848d7563dfff7e5fc2be9e29a2539196
6feb53aad7f40110706b807646b80371cfc5f245eba94c90e6f2ff86a52cf802dc2e3d93e10e0ff76bf55428c35ad9f85a4c5b92c992d9fc4fca1b0d678694c2
b1b00b86ad329ece706b807646b803712c3e401152e7f24ea101dd6a14a7f9cb748b0fbf0433d6d4b0935bf65bbc890d144218fd378cf3cad2c0ea702584563a
e776e9b255bda08cbfd81d659a09e4b36bf55428c35ad9f85a4c5b92c992d9fc97eb804d5b93de4bfa82b8289c739e36820b509cfe8be04207c93016116a6b20
8767f397bff4c3a731bbfa71d5efb6fe102372497787b35ca40aa245948346d0082c10ecaed06bf3e35b810d8731224a11816a245f56ba71dc1c9c6b11a54bfa
de293b3f4fabecfa706b807646b803713fbb1661ddd2e6c349f4cd7a4f0b98d9d06fa233117809966baa4c351fc5e3ad60a188d940e604c1ecf22f43cd602b91
44286f328a01b55967d2eff95da562744e8a35b2e28adfb5477207172985fee0b583f4aa3f72f4afcf7eb983195286b83bc86ed437f647342fcd1db7a4efa241
4b6085f2012636675a0aa31c52cddba976617f42cd5d956b0faa79a649213700a920ac01c56db9fd3864b3a24f0c1a4ad20fe61542bbf436d1e27d528923d7cf
2591cd74724ad29cf60dadfdf2d219cec16a0f8f4c5ded13cdddee18511cb21bc1a8479c4582da8eb34d6d16825435146bf55428c35ad9f82c213f331229c67a
a12bdaba68a64257706b807646b80371bfa9911b1785141a39cd518a8c11ca77e2e76f4b092fc63eea35b00e2b883da337fd2c7cd4abefddc697d83a86622be0
a8fd19f33527d4f2b045c149b70fbd51a40aa245948346d0082c10ecaed06bf3e35b810d8731224a11816a245f56ba7166745ff7f3a62c030d113fb97904eb76
cdaa385411811e27bfd81d659a09e4b32637e9cac2aa5cea2cecad1ebf804c4bf467148f06ca8e43d7f1ff6dfa70b4ce848d7563dfff7e5fc2be9e29a2539196
d885601d5ff3fe92706b807646b8037156b230bc55cb5affe2cc1aca0a2ab385896c174ab5b56a7f5517d1c8661127d488ac3dc1db26c990d2c0ea702584563a
e776e9b255bda08cbfd81d659a09e4b36bf55428c35ad9f85a4c5b92c992d9fc97eb804d5b93de4bfa82b8289c739e36820b509cfe8be04207c93016116a6b20
8767f397bff4c3a731bbfa71d5efb6fe825b843a3aa9ddcd7d048848de185a921c544c4d299e6b123ce6cd54a8e709daaeab973424ca9a178c3cc77198966d0f
01ac7c7e7f0544cacd9f9b0fe66d8ad109b7eb0b13146b87781e4482be50d967d08e85f99956a9aa6bf55428c35ad9f85a4c5b92c992d9fc4fca1b0d678694c2
151d5f500627aeed706b807646b803715f58806bb1f280d78b7177f75a471c1a644126c9831a96bd0faa79a649213700a920ac01c56db9fd7279e9bc1bd47f05
729f62218b242475a665d0fac02ce03e06c5d8b87f94f2efe23db95df7e9195c781e4482be50d9671b071ce3e4d467af3b79d1cd0e073c32222391968db1d825
322ed0db630e86d1706b807646b8037172763bad93877d27f139d7ac0583b8b80263729f0f0cf7117662f9e929a451ee8318958aa75d4556dd0a70f33e2447ea
4e2689494256295447158635b18b66597d048848de185a921c544c4d299e6b123ce6cd54a8e709daaeab973424ca9a17ae356be22a8d1888eef28c4c54e8d10e
4b6085f2012636675a0aa31c52cddba976617f42cd5d956b0faa79a649213700a920ac01c56db9fd3864b3a24f0c1a4ad20fe61542bbf436d1e27d528923d7cf
01ac7c7e7f0544caa665d0fac02ce03e09b7eb0b13146b87c83ec18a448a5fd9784a2b59fdc2d0416bf55428c35ad9f85a4c5b92c992d9fc4fca1b0d678694c2
e0f6a95fe9313b94e91060ee5f9b7ca358ed3f452367458a998f292a7264cc5efbc65bbea0b2d73e81d5360d0e44f50c7d048848de185a92e8a5c79625801269
dd56be57903e6a8ef6a2b547dc976ba0cb3a73884c4d3cc93e8c81d05798c92b9f2fc393ab2768c02652f4f4125f2d152270b278b7aaaab02db040ab0ea4266a
439fe32f88b0f315c12e63f53fc8b6c7cb3a73884c4d3cc9e280b1d05923b4da37fd2c7cd4abefdd5edcf644bb079ea8abd87a4df4383b0550794576b4f63d0d
5e907deffd12c5ffdd06c2baef735cae36806a8e381bf9a00faa79a649213700a920ac01c56db9fd3864b3a24f0c1a4ad20fe61542bbf436d1e27d528923d7cf
8767f397bff4c3a731bbfa71d5efb6fe102372497787b35ca40aa245948346d0082c10ecaed06bf3e35b810d8731224a11816a245f56ba71dc1c9c6b11a54bfa
439fe32f88b0f315eb8784877639638306c5d8b87f94f2efe23db95df7e9195cc83ec18a448a5fd9b21b3212d617976df81458ac53d3e705d2c0ea702584563a
e776e9b255bda08cbfd81d659a09e4b36bf55428c35ad9f85a4c5b92c992d9fc97eb804d5b93de4bfa82b8289c739e36820b509cfe8be04207c93016116a6b20
8767f397bff4c3a731bbfa71d5efb6fe102372497787b35ca40aa245948346d0082c10ecaed06bf3e35b810d8731224a11816a245f56ba71dc1c9c6b11a54bfa
03cfec0e57fd8ab5706b807646b8037144dcb6c69fd58c36748d13bd8f8bc0a72d93b3fd942b6444fd25d2d6f73530364e8a35b2e28adfb53fe11ce40ddfea11
61b80edd75d3fad9706b807646b8037105c12583573b1a604baefea942ae9944391695ceff3b1e28a8203bfafb0360cf357141e83f6f5fd5e568bf06bf5a7193
96336b2a47dec5723af4d738db2def1672f196e24365d1dc2d230f987f0805076858de2918f9ceb96c11caa64c17e23781b4583b3edda49281a54239993b2eef
9ebd6e92234a40f2706b807646b80371e560c959dcca8cd6c73b382e9eb3fd07e1a0eabfd83358d9cdd6c3d82d863cfa0faa79a649213700320103ab65281039
09c636a348d97532706b807646b80371e560c959dcca8cd655ebf33c24416fc579442c61b2ea17296bf55428c35ad9f85a4c5b92c992d9fc4fca1b0d678694c2
d67e829325dcb2c1bc27f931268b4061819f482ced2d14da3e8c81d05798c92b8ffb65617324796cc0a79cb7fc80007a986c5a7635ccca3450794576b4f63d0d
5e907deffd12c5ffdd06c2baef735cae36806a8e381bf9a00faa79a649213700a920ac01c56db9fd3864b3a24f0c1a4ad20fe61542bbf436d1e27d528923d7cf
8767f397bff4c3a731bbfa71d5efb6fe102372497787b35ca40aa245948346d0082c10ecaed06bf3e35b810d8731224a11816a245f56ba71dc1c9c6b11a54bfa
3905556475ff6a06706b807646b803714496facb4f6a736f48ecc823cb78901579c3b84a51ea5f388dcea2cdd2d3d5cc9783ae8e4821c68fb9549840541e7e65
2b1410deca799d73a40aa245948346d0082c10ecaed06bf3e35b810d8731224a11816a245f56ba7166745ff7f3a62c03bc9c3a04ad6851fb40c9dbafbda25b3b
4b6085f2012636676f3085441f0c7a2a391695ceff3b1e28a8203bfafb0360cf357141e83f6f5fd5454552a724d48e0533afbd6256500a03ec5f13850fa722f1
40eb9211c1d5510c706b807646b8037148ecc823cb789015f7249d38c54327086e8abf1353c4af0d726d9a7f6b37359c8318958aa75d4556dd0a70f33e2447ea
4e2689494256295447158635b18b66597d048848de185a921c544c4d299e6b123ce6cd54a8e709daaeab973424ca9a17ae356be22a8d1888eef28c4c54e8d10e
4b6085f2012636675a0aa31c52cddba976617f42cd5d956b0faa79a649213700a920ac01c56db9fd3864b3a24f0c1a4ad20fe61542bbf436d1e27d528923d7cf
3d54eed7fad4ba10706b807646b803717039335bb7dca577b61b43883024a2c235f04a68b79b9954cb43076903417b7660a188d940e604c1ecf22f43cd602b91
44286f328a01b55967d2eff95da562744e8a35b2e28adfb5477207172985fee0b583f4aa3f72f4afcf7eb983195286b83bc86ed437f647342fcd1db7a4efa241
4b6085f2012636675a0aa31c52cddba976617f42cd5d956b0faa79a649213700a920ac01c56db9fd3864b3a24f0c1a4ad20fe61542bbf436d1e27d528923d7cf
cc09709c562a8286706b807646b80371f829acbcbd4dd07928265f7f83427eab99bbf488c037c99c4e8a35b2e28adfb5477207172985fee00fdb7d013c1bd542
330650800606f8a2706b807646b803719cc57d5911c8695e15b9227cbe7f8e0095aa9047f39786ae9cbb6e8bb9298f671cc6f6773fc1dbced2c0ea702584563a
e776e9b255bda08cbfd81d659a09e4b36bf55428c35ad9f85a4c5b92c992d9fc97eb804d5b93de4bfa82b8289c739e36820b509cfe8be04207c93016116a6b20
8767f397bff4c3a731bbfa71d5efb6fe102372497787b35ca40aa245948346d0082c10ecaed06bf3e35b810d8731224a11816a245f56ba71dc1c9c6b11a54bfa
daa5f612261b8059706b807646b80371e560c959dcca8cd6c19c3ff44ddc2773e950b78090ac4cbfcdd6c3d82d863cfa0faa79a649213700320103ab65281039
e77f61e80999fe7d706b807646b80371e560c959dcca8cd6c133338b473154cbe950b78090ac4cbfcdd6c3d82d863cfa0faa79a649213700320103ab65281039
6b46e7a2876a8d8e706b807646b80371c57a4932ea550b235bc31f2205ac381fb4ed8e704ca552416254d6470acd59d2fb39caa823c4ddd7c27a0fe47ba19b0a
4651b4c215cbe2b1c23cdff2c91ac4507d048848de185a921c544c4d299e6b123ce6cd54a8e709daaeab973424ca9a17ae356be22a8d1888eef28c4c54e8d10e
8767f397bff4c3a731bbfa71d5efb6fe102372497787b35ca40aa245948346d0082c10ecaed06bf3e35b810d8731224a11816a245f56ba71dc1c9c6b11a54bfa
0de6f0b1b4b3b28b706b807646b80371e560c959dcca8cd683150d9dbc9464f0e47cc8d2d1d9cc7d9c65d70281d91ff9589af0812576e61b450139be464a895d
b032015482838020d2208d979160a902391695ceff3b1e28a8203bfafb0360cf357141e83f6f5fd5454552a724d48e0533afbd6256500a03ec5f13850fa722f1
8767f397bff4c3a731bbfa71d5efb6fe102372497787b35ca40aa245948346d0082c10ecaed06bf3e35b810d8731224a11816a245f56ba71dc1c9c6b11a54bfa
e9f419af62bfe95ecd9f9b0fe66d8ad1819f482ced2d14da5c9321bdc8ca15d5ce5ec34e6f8ad1ca226ae89384f8d7ebe40a25d3586bc3758ddef45e1d872303
84ac03e88410cd52706b807646b8037194e905f4c9e24d4e4c9fa3a5a42b360ee560c959dcca8cd64b05a88daffcbf9e075d017d20b9edeb8e75c1b5a4d8f232
d2bbd7e847d638e1f9160e96a49a6a05d7f1ff6dfa70b4ce848d7563dfff7e5f0f291a0c6f7f7ab753f42fece2d95c6eb3e38518802e7fe5b681fc1ddfef9a06
cdaa385411811e27bfd81d659a09e4b32637e9cac2aa5cea2cecad1ebf804c4bf467148f06ca8e43d7f1ff6dfa70b4ce848d7563dfff7e5fc2be9e29a2539196
dad8886b90a8760e706b807646b80371f829acbcbd4dd079e6f2ff86a52cf802dc2e3d93e10e0ff76bf55428c35ad9f85a4c5b92c992d9fc4fca1b0d678694c2
e4d5442e524607b4706b807646b803718c43ddd2a57b697da101dd6a14a7f9cbecbd3f463a64bac7b0935bf65bbc890d144218fd378cf3cad2c0ea702584563a
e776e9b255bda08cbfd81d659a09e4b36bf55428c35ad9f85a4c5b92c992d9fc97eb804d5b93de4bfa82b8289c739e36820b509cfe8be04207c93016116a6b20
8767f397bff4c3a731bbfa71d5efb6fe102372497787b35ca40aa245948346d0082c10ecaed06bf3e35b810d8731224a11816a245f56ba71dc1c9c6b11a54bfa
04d517153e4360c9706b807646b80371261eeb3b2d3e2f7bc2c485bcc3e16b5db255a889ec2a3f8a6baa4c351fc5e3ad60a188d940e604c1ecf22f43cd602b91
44286f328a01b55967d2eff95da562744e8a35b2e28adfb5477207172985fee0b583f4aa3f72f4afcf7eb983195286b83bc86ed437f647342fcd1db7a4efa241
4b6085f2012636675a0aa31c52cddba976617f42cd5d956b0faa79a649213700a920ac01c56db9fd3864b3a24f0c1a4ad20fe61542bbf436d1e27d528923d7cf
cc4ebde65d1469672688e0dfc494de0fc16a0f8f4c5ded13cdddee18511cb21be240d922c685a1d25f41aa3b720e3f6e6bf55428c35ad9f82c213f331229c67a
da947bcd16cd60a7706b807646b803714edff6792e310c1d39cd518a8c11ca7755b91bc310a4bc0eea35b00e2b883da3e40dcb33bbbcadccc697d83a86622be0
a8fd19f33527d4f2b045c149b70fbd51a40aa245948346d0082c10ecaed06bf3e35b810d8731224a11816a245f56ba7166745ff7f3a62c030d113fb97904eb76
cdaa385411811e27bfd81d659a09e4b32637e9cac2aa5cea2cecad1ebf804c4bf467148f06ca8e43d7f1ff6dfa70b4ce848d7563dfff7e5fc2be9e29a2539196
437625b53e10feb1706b807646b80371f19b459437b8fedbe560c959dcca8cd6310a2d83cfaa566c5517d1c8661127d488ac3dc1db26c990d2c0ea702584563a
e776e9b255bda08cbfd81d659a09e4b36bf55428c35ad9f85a4c5b92c992d9fc97eb804d5b93de4bfa82b8289c739e36820b509cfe8be04207c93016116a6b20
8767f397bff4c3a731bbfa71d5efb6fe825b843a3aa9ddcd7d048848de185a921c544c4d299e6b123ce6cd54a8e709daaeab973424ca9a178c3cc77198966d0f
a24b33ea3c74eb38cd9f9b0fe66d8ad174ef25821941badd781e4482be50d967d08e85f99956a9aa6bf55428c35ad9f85a4c5b92c992d9fc4fca1b0d678694c2
0be1bd08545f4ec3706b807646b803711f9f11700584b5538b7177f75a471c1a644126c9831a96bd0faa79a649213700a920ac01c56db9fd7279e9bc1bd47f05
c18beea1ddade083a665d0fac02ce03ed0760776486494e51f39ca6e1f4c8b68781e4482be50d9671b071ce3e4d467af3b79d1cd0e073c32222391968db1d825
49cff0fa4fdc00a7706b807646b803719928123d05afe57a2247f36d5c886f60ddc45728780a55e87662f9e929a451ee8318958aa75d4556dd0a70f33e2447ea
4e2689494256295447158635b18b66597d048848de185a921c544c4d299e6b123ce6cd54a8e709daaeab973424ca9a17ae356be22a8d1888eef28c4c54e8d10e
4b6085f2012636675a0aa31c52cddba976617f42cd5d956b0faa79a649213700a920ac01c56db9fd3864b3a24f0c1a4ad20fe61542bbf436d1e27d528923d7cf
a24b33ea3c74eb38a665d0fac02ce03e74ef25821941baddc83ec18a448a5fd9784a2b59fdc2d0416bf55428c35ad9f85a4c5b92c992d9fc4fca1b0d678694c2
e78d49500a79ee503af4d738db2def1658ed3f452367458a52c3aa735b5441f2a8047ed64ff9f33281d5360d0e44f50c7d048848de185a92e8a5c79625801269
5125ca7103a1d6baf6a2b547dc976ba0819f482ced2d14da3e8c81d05798c92b2d230f987f0805072652f4f4125f2d152270b278b7aaaab02db040ab0ea4266a
d67e829325dcb2c1c12e63f53fc8b6c7819f482ced2d14dae280b1d05923b4dae40dcb33bbbcadcc5edcf644bb079ea8bc515f54805fbb7c50794576b4f63d0d
5e907deffd12c5ffdd06c2baef735cae36806a8e381bf9a00faa79a649213700a920ac01c56db9fd3864b3a24f0c1a4ad20fe61542bbf436d1e27d528923d7cf
8767f397bff4c3a731bbfa71d5efb6fe102372497787b35ca40aa245948346d0082c10ecaed06bf3e35b810d8731224a11816a245f56ba71dc1c9c6b11a54bfa
d67e829325dcb2c1eb87848776396383d0760776486494e51f39ca6e1f4c8b68c83ec18a448a5fd9442c74136ac758e5f81458ac53d3e705d2c0ea702584563a
e776e9b255bda08cbfd81d659a09e4b36bf55428c35ad9f85a4c5b92c992d9fc97eb804d5b93de4bfa82b8289c739e36820b509cfe8be04207c93016116a6b20
8767f397bff4c3a731bbfa71d5efb6fe102372497787b35ca40aa245948346d0082c10ecaed06bf3e35b810d8731224a11816a245f56ba71dc1c9c6b11a54bfa
a3ce589fda26bc39706b807646b80371dd0c5dc9b1edca9c453707881d2d57272d93b3fd942b6444fd25d2d6f73530364e8a35b2e28adfb53fe11ce40ddfea11
898f49cae2941477bc27f931268b40614f30320945388c19ec755e73ed0222a2beb9f0e5f8795562986c5a7635ccca348dcea2cdd2d3d5ccd573267e41263c5c
dd06c2baef735cae2b1410deca799d73a40aa245948346d0082c10ecaed06bf3e35b810d8731224a11816a245f56ba7166745ff7f3a62c030d113fb97904eb76
4b6085f2012636675a0aa31c52cddba976617f42cd5d956b0faa79a649213700a920ac01c56db9fd3864b3a24f0c1a4ad20fe61542bbf436d1e27d528923d7cf
5ad79aa79b967e59706b807646b80371b255a889ec2a3f8a5dfb023678449c4a5bfd202650a434ed6bf55428c35ad9f85a4c5b92c992d9fc4fca1b0d678694c2
09a7c1f8b05a8ac1706b807646b8037111dc0ccc192ee6db975a7d268422e273cdd6c3d82d863cfa0faa79a649213700a920ac01c56db9fd7279e9bc1bd47f05
5d414f178cc25c37706b807646b803711ce4ec7b3353fa065e26356bb7ecb88cb0c9c6f46a17fca57d048848de185a921c544c4d299e6b123e042f521bb1c783
064c7d10b22fd68a908295b3613f26e632957186b9709f6c995cd94a9739626ddad4bb70f534f24c4e8a35b2e28adfb5477207172985fee00fdb7d013c1bd542
a2faec34d68cdd2ae42d36884b8caefeeb577d3817a5fda3677055e3eb5baaaa9cd6e365073343da5e50ce263e60afd07c937d163d9db1c3cd64d7206b7107eb
af399d32d282acb64e8a35b2e28adfb5477207172985fee0b583f4aa3f72f4afcf7eb983195286b83bc86ed437f64734e2549a47e2987dd02f12f42cc4145784
fd6c49aee1d655b1706b807646b80371faf1128b95f1ebcbfdfe3e2d1cc93255c58f303f7234a5891ed0f011e4546e8cbfaba9e20e637806bf1fa6af27fc5a66
07d381546416b7f7706b807646b803719cc57d5911c8695e8cdc29d3e47964fb2219705b561566b98dcea2cdd2d3d5cc9783ae8e4821c68fb9549840541e7e65
2b1410deca799d73a40aa245948346d0082c10ecaed06bf3e35b810d8731224a11816a245f56ba7166745ff7f3a62c03bc9c3a04ad6851fb40c9dbafbda25b3b
4b6085f2012636675a0aa31c52cddba976617f42cd5d956b0faa79a649213700a920ac01c56db9fd3864b3a24f0c1a4ad20fe61542bbf436d1e27d528923d7cf
239e21d47e85dfc7cd9f9b0fe66d8ad14bea0e8b5190e15c4705292f7cc3a5608ca0ffb6dc9a8448bc5810c1b03d362d55cc7113ef7d91bd75f2ebdd4149d8b6
2406debec30f3f441b3d56e5dcd407177d048848de185a921c544c4d299e6b123ce6cd54a8e709daaeab973424ca9a17ae356be22a8d1888eef28c4c54e8d10e
b9364514af379b129d8377ee7737fb44391695ceff3b1e28a8203bfafb0360cf357141e83f6f5fd5454552a724d48e0533afbd6256500a03ec5f13850fa722f1
32f945196658a473706b807646b803718cdc9013c841f5288aed68c830f56e56391695ceff3b1e28a8203bfafb0360cf357141e83f6f5fd5e568bf06bf5a7193
f57b0f2f4f3d276e706b807646b80371b255a889ec2a3f8a3fd5282e35db734081b28afd5c0dc6dfa40aa245948346d0082c10ecaed06bf350c3d8bb727f63f0
239e21d47e85dfc7a665d0fac02ce03e4bea0e8b5190e15c304b2fb6ff2be4b42a9b56064b9874c77422178dd965d0d4e637fdbb8c7ad987f39b45ec775ff4a6
b09606f3927a2340e544db82a89be0c4a40aa245948346d0082c10ecaed06bf3e35b810d8731224a11816a245f56ba7166745ff7f3a62c030d113fb97904eb76
b9364514af379b12c55c8187f39b70bed7f1ff6dfa70b4ce848d7563dfff7e5f0f291a0c6f7f7ab753f42fece2d95c6eb3e38518802e7fe5b681fc1ddfef9a06
a57a5f197aff3dc6706b807646b80371fad8af76163a260969dbbf2bb32745e5949e0297405d1edc7d048848de185a921c544c4d299e6b123e042f521bb1c783
928d7a9f462cf2ed706b807646b803719994d7d1157731e58ff5e9d45e40611b74eaa177d36f0466a3228d1dae875195e556b1c15460ae6f450139be464a895d
b032015482838020d2208d979160a902391695ceff3b1e28a8203bfafb0360cf357141e83f6f5fd5454552a724d48e0533afbd6256500a03ec5f13850fa722f1
8767f397bff4c3a731bbfa71d5efb6fe825b843a3aa9ddcd7d048848de185a921c544c4d299e6b123ce6cd54a8e709daaeab973424ca9a178c3cc77198966d0f
239e21d47e85dfc7cc0121b5e20e20768839408c6e548131653d9034903866e1a81c495fd6a99d2f93f0978bcaae26c25e907deffd12c5fff9224a01a31d483a
b31205aa407e75cde847dda77d5f94430faa79a649213700a920ac01c56db9fd3864b3a24f0c1a4ad20fe61542bbf4362f9a1b2dabc616804f83835b8ea0ca64
4b6085f2012636675a0aa31c52cddba976617f42cd5d956b0faa79a649213700a920ac01c56db9fd3864b3a24f0c1a4ad20fe61542bbf436d1e27d528923d7cf
be17d341d85dd035706b807646b803715186f2486e5ec430a893d967a1134e74bf1ee911780421ddd7f1ff6dfa70b4ce848d7563dfff7e5fc2be9e29a2539196
daefbff9bfe89c16706b807646b80371568b83897e2c04f1231cd8b4748078fb4f8181b227c1b6b57d048848de185a921c544c4d299e6b123e042f521bb1c783
f24cff2bb787655c706b807646b803717a5d67b952146eead9f2b322ed350f1aa40aa245948346d0082c10ecaed06bf3e35b810d8731224a1ec4fafcdf836200
239e21d47e85dfc7bc27f931268b4061613c3c7fd0d72d41db821acf64ffa16c233220101b65c5356cee97727155d1e12a3a4c6fd0290a8c6e60eb3201e0fb5e
ec1a1895dde1d6acaee7c3355aa4e4a936806a8e381bf9a00faa79a649213700a920ac01c56db9fd3864b3a24f0c1a4ad20fe61542bbf436d1e27d528923d7cf
5d8e919edf6c88eabf230db17611f82f112096b03532d4789f009412f1d87d1f68dce8bde83150031dbadcc869c223fde637fdbb8c7ad987f39b45ec775ff4a6
2333c0a2b8851bfef3950200aa8721566bf55428c35ad9f85a4c5b92c992d9fc97eb804d5b93de4bfa82b8289c739e36820b509cfe8be04207c93016116a6b20
c2a8eac764f58a52c4ad4e35d9645a941ed0f011e4546e8cbfaba9e20e63780623444358c598a958b1c7885f730bd5a11fb8ee826d6e4f836cacbdddad249e57
58cf452d198b3802706b807646b80371774499e2ddbd685ddd5a8c169b401c4d6bf55428c35ad9f85a4c5b92c992d9fc97eb804d5b93de4bc6f9ddaa14c87867
3e761c6835cdd8d5706b807646b8037191ffabe30b86256b774cb8be900c43131de333fbd2e0f35dd7f1ff6dfa70b4ce848d7563dfff7e5fc2be9e29a2539196
c2782c4833b5e3b5706b807646b8037143d8fdb7f0cc88569dd9e231f7c12eb7a40aa245948346d0082c10ecaed06bf3e35b810d8731224a1ec4fafcdf836200
5d8e919edf6c88eab585b96681e0ca9b8839408c6e5481311ab3f93ad124c2983f8320f73c44d596c1af6985fb00d168bbc22f6f0f8a0075dd0a70f33e2447ea
bc93dc5acf240a3931c8597f0d0568526bf55428c35ad9f85a4c5b92c992d9fc97eb804d5b93de4bfa82b8289c739e36820b509cfe8be04207c93016116a6b20